<?xml version='1.0' encoding='utf-8'?>
<net xmlns:xsi="http://www.w3.org/2001/XMLSchema-instance" version="1.20" junctionCornerDetail="5" lefthand="true" limitTurnSpeed="5.50" xsi:noNamespaceSchemaLocation="http://sumo.dlr.de/xsd/net_file.xsd">

    <location netOffset="-302193.26,4080715.02" convBoundary="2.69,5.29,376.27,460.06" origBoundary="174.774793,-36.851728,174.793763,-36.845334" projParameter="+proj=utm +zone=60 +ellps=WGS84 +datum=WGS84 +units=m +no_defs" />

    <type id="highway.primary" priority="12" numLanes="2" speed="27.78" disallow="tram rail_urban rail rail_electric rail_fast ship container cable_car subway aircraft wheelchair scooter drone" oneway="0" />
    <type id="highway.residential" priority="3" numLanes="1" speed="13.89" disallow="tram rail_urban rail rail_electric rail_fast ship container cable_car subway aircraft wheelchair scooter drone" oneway="0" />
    <type id="highway.secondary" priority="11" numLanes="1" speed="27.78" disallow="tram rail_urban rail rail_electric rail_fast ship container cable_car subway aircraft wheelchair scooter drone" oneway="0" />
    <type id="highway.trunk" priority="13" numLanes="2" speed="27.78" disallow="pedestrian bicycle tram rail_urban rail rail_electric rail_fast ship container cable_car subway aircraft wheelchair scooter drone" oneway="0" />
    <type id="highway.trunk_link" priority="8" numLanes="1" speed="22.22" disallow="pedestrian bicycle tram rail_urban rail rail_electric rail_fast ship container cable_car subway aircraft wheelchair scooter drone" oneway="0" />

    <edge id=":1345480290_0" function="internal">
        <lane id=":1345480290_0_0" index="0" disallow="bicycle tram rail_urban rail rail_electric rail_fast ship container cable_car subway aircraft wheelchair scooter drone" speed="13.89" length="22.49" shape="271.16,442.41 263.67,442.02 257.75,440.92 252.99,439.70 249.00,438.98" />
    </edge>
    <edge id=":1345480290_1" function="internal">
        <lane id=":1345480290_1_0" index="0" disallow="tram rail_urban rail rail_electric rail_fast ship container cable_car subway aircraft wheelchair scooter drone" speed="13.89" length="23.11" shape="271.16,442.41 248.48,442.36" />
        <lane id=":1345480290_1_1" index="1" disallow="tram rail_urban rail rail_electric rail_fast ship container cable_car subway aircraft wheelchair scooter drone" speed="13.89" length="23.11" shape="271.16,442.41 264.41,443.03 259.84,444.15 255.27,445.19 248.52,445.56" />
        <lane id=":1345480290_1_2" index="2" disallow="tram rail_urban rail rail_electric rail_fast ship container cable_car subway aircraft wheelchair scooter drone" speed="13.89" length="23.11" shape="271.16,442.41 264.33,443.54 259.86,445.75 255.39,447.89 248.56,448.77" />
        <lane id=":1345480290_1_3" index="3" disallow="tram rail_urban rail rail_electric rail_fast ship container cable_car subway aircraft wheelchair scooter drone" speed="13.89" length="23.11" shape="271.23,445.61 264.45,445.23 259.86,444.15 255.26,442.99 248.48,442.36" />
        <lane id=":1345480290_1_4" index="4" disallow="tram rail_urban rail rail_electric rail_fast ship container cable_car subway aircraft wheelchair scooter drone" speed="13.89" length="23.11" shape="271.23,445.61 248.52,445.56" />
        <lane id=":1345480290_1_5" index="5" disallow="tram rail_urban rail rail_electric rail_fast ship container cable_car subway aircraft wheelchair scooter drone" speed="13.89" length="23.11" shape="271.23,445.61 264.47,446.23 259.90,447.35 255.32,448.39 248.56,448.77" />
        <lane id=":1345480290_1_6" index="6" disallow="tram rail_urban rail rail_electric rail_fast ship container cable_car subway aircraft wheelchair scooter drone" speed="13.89" length="23.11" shape="271.30,448.80 264.40,447.94 259.89,445.75 255.38,443.49 248.48,442.36" />
        <lane id=":1345480290_1_7" index="7" disallow="tram rail_urban rail rail_electric rail_fast ship container cable_car subway aircraft wheelchair scooter drone" speed="13.89" length="23.11" shape="271.30,448.80 264.51,448.43 259.91,447.35 255.31,446.19 248.52,445.56" />
        <lane id=":1345480290_1_8" index="8" disallow="tram rail_urban rail rail_electric rail_fast ship container cable_car subway aircraft wheelchair scooter drone" speed="13.89" length="23.11" shape="271.30,448.80 248.56,448.77" />
    </edge>
    <edge id=":1345480297_0" function="internal">
        <lane id=":1345480297_0_0" index="0" disallow="bicycle tram rail_urban rail rail_electric rail_fast ship container cable_car subway aircraft wheelchair scooter drone" speed="20.84" length="11.80" shape="189.83,417.69 187.99,405.98" />
        <lane id=":1345480297_0_1" index="1" disallow="bicycle tram rail_urban rail rail_electric rail_fast ship container cable_car subway aircraft wheelchair scooter drone" speed="20.84" length="11.80" shape="186.68,418.24 184.86,406.64" />
    </edge>
    <edge id=":1345480297_2" function="internal">
        <lane id=":1345480297_2_0" index="0" disallow="bicycle tram rail_urban rail rail_electric rail_fast ship container cable_car subway aircraft wheelchair scooter drone" speed="13.89" length="15.24" shape="178.60,407.96 179.05,412.64 178.39,416.22 177.00,419.27 175.28,422.37" />
    </edge>
    <edge id=":1345480297_3" function="internal">
        <lane id=":1345480297_3_0" index="0" disallow="bicycle tram rail_urban rail rail_electric rail_fast ship container cable_car subway aircraft wheelchair scooter drone" speed="20.84" length="11.57" shape="178.60,407.96 180.37,419.33" />
        <lane id=":1345480297_3_1" index="1" disallow="bicycle tram rail_urban rail rail_electric rail_fast ship container cable_car subway aircraft wheelchair scooter drone" speed="20.84" length="11.57" shape="181.73,407.30 183.53,418.78" />
    </edge>
    <edge id=":1345480299_0" function="internal">
        <lane id=":1345480299_0_0" index="0" disallow="bicycle tram rail_urban rail rail_electric rail_fast ship container cable_car subway aircraft wheelchair scooter drone" speed="9.29" length="7.44" shape="194.97,425.78 193.12,424.54 191.80,423.61 190.89,422.43 190.31,420.40" />
    </edge>
    <edge id=":1345480299_1" function="internal">
        <lane id=":1345480299_1_0" index="0" disallow="bicycle tram rail_urban rail rail_electric rail_fast ship container cable_car subway aircraft wheelchair scooter drone" speed="13.89" length="7.25" shape="191.29,427.62 190.31,420.40" />
        <lane id=":1345480299_1_1" index="1" disallow="bicycle tram rail_urban rail rail_electric rail_fast ship container cable_car subway aircraft wheelchair scooter drone" speed="13.89" length="7.25" shape="188.13,428.11 187.16,420.95" />
    </edge>
    <edge id=":1345480299_3" function="internal">
        <lane id=":1345480299_3_0" index="0" disallow="bicycle tram rail_urban rail rail_electric rail_fast ship container cable_car subway aircraft wheelchair scooter drone" speed="13.89" length="7.12" shape="180.85,422.05 181.80,429.07" />
        <lane id=":1345480299_3_1" index="1" disallow="bicycle tram rail_urban rail rail_electric rail_fast ship container cable_car subway aircraft wheelchair scooter drone" speed="13.89" length="7.12" shape="184.00,421.50 184.96,428.59" />
    </edge>
    <edge id=":25772779_0" function="internal">
        <lane id=":25772779_0_0" index="0" disallow="bicycle tram rail_urban rail rail_electric rail_fast ship container cable_car subway aircraft wheelchair scooter drone" speed="13.89" length="18.17" shape="159.79,319.16 155.68,317.86 151.08,316.13 146.81,313.92 143.70,311.19" />
    </edge>
    <edge id=":25772779_1" function="internal">
        <lane id=":25772779_1_0" index="0" disallow="bicycle tram rail_urban rail rail_electric rail_fast ship container cable_car subway aircraft wheelchair scooter drone" speed="13.89" length="19.55" shape="155.67,326.65 143.70,311.19" />
    </edge>
    <edge id=":25772779_2" function="internal">
        <lane id=":25772779_2_0" index="0" disallow="bicycle tram rail_urban rail rail_electric rail_fast ship container cable_car subway aircraft wheelchair scooter drone" speed="13.89" length="19.81" shape="138.59,315.04 150.63,330.59" />
        <lane id=":25772779_2_1" index="1" disallow="bicycle tram rail_urban rail rail_electric rail_fast ship container cable_car subway aircraft wheelchair scooter drone" speed="13.89" length="19.81" shape="138.59,315.04 142.53,319.41 145.81,321.87 149.13,324.31 153.15,328.62" />
        <lane id=":25772779_2_2" index="2" disallow="bicycle tram rail_urban rail rail_electric rail_fast ship container cable_car subway aircraft wheelchair scooter drone" speed="13.89" length="19.81" shape="141.15,313.12 144.29,318.10 145.83,321.90 147.40,325.67 150.63,330.59" />
        <lane id=":25772779_2_3" index="3" disallow="bicycle tram rail_urban rail rail_electric rail_fast ship container cable_car subway aircraft wheelchair scooter drone" speed="13.89" length="19.81" shape="141.15,313.12 153.15,328.62" />
    </edge>
    <edge id=":25772779_6" function="internal">
        <lane id=":25772779_6_0" index="0" disallow="bicycle tram rail_urban rail rail_electric rail_fast ship container cable_car subway aircraft wheelchair scooter drone" speed="13.89" length="5.42" shape="141.15,313.12 144.99,316.93" />
    </edge>
    <edge id=":25772779_7" function="internal">
        <lane id=":25772779_7_0" index="0" disallow="bicycle tram rail_urban rail rail_electric rail_fast ship container cable_car subway aircraft wheelchair scooter drone" speed="13.89" length="14.95" shape="144.99,316.93 145.74,317.67 150.41,320.08 154.85,321.28 158.78,322.20" />
    </edge>
    <edge id=":25772782_0" function="internal">
        <lane id=":25772782_0_0" index="0" disallow="tram rail_urban rail rail_electric rail_fast ship container cable_car subway aircraft wheelchair scooter drone" speed="13.89" length="22.63" shape="210.96,324.51 188.39,322.83" />
    </edge>
    <edge id=":25772782_1" function="internal">
        <lane id=":25772782_1_0" index="0" disallow="tram rail_urban rail rail_electric rail_fast ship container cable_car subway aircraft wheelchair scooter drone" speed="13.89" length="4.08" shape="210.96,324.51 206.90,324.93" />
    </edge>
    <edge id=":25772782_4" function="internal">
        <lane id=":25772782_4_0" index="0" disallow="tram rail_urban rail rail_electric rail_fast ship container cable_car subway aircraft wheelchair scooter drone" speed="13.89" length="19.06" shape="206.90,324.93 206.00,325.02 199.65,326.73 193.52,329.10 189.17,331.58" />
    </edge>
    <edge id=":25772782_2" function="internal">
        <lane id=":25772782_2_0" index="0" disallow="tram rail_urban rail rail_electric rail_fast ship container cable_car subway aircraft wheelchair scooter drone" speed="13.89" length="21.84" shape="190.32,334.78 194.44,332.29 200.10,329.92 205.97,328.21 210.72,327.70" />
    </edge>
    <edge id=":25772782_3" function="internal">
        <lane id=":25772782_3_0" index="0" disallow="tram rail_urban rail rail_electric rail_fast ship container cable_car subway aircraft wheelchair scooter drone" speed="13.89" length="22.63" shape="188.15,326.02 210.72,327.70" />
    </edge>
    <edge id=":25772784_0" function="internal">
        <lane id=":25772784_0_0" index="0" disallow="bicycle tram rail_urban rail rail_electric rail_fast ship container cable_car subway aircraft wheelchair scooter drone" speed="11.69" length="13.05" shape="176.22,345.12 173.73,349.13 172.05,352.44 171.18,355.03 171.12,356.92" />
    </edge>
    <edge id=":25772784_1" function="internal">
        <lane id=":25772784_1_0" index="0" disallow="bicycle tram rail_urban rail rail_electric rail_fast ship container cable_car subway aircraft wheelchair scooter drone" speed="9.95" length="9.33" shape="177.37,355.52 177.07,353.18 177.26,350.92 177.93,348.73 179.07,346.60" />
    </edge>
    <edge id=":25772784_2" function="internal">
        <lane id=":25772784_2_0" index="0" disallow="bicycle tram rail_urban rail rail_electric rail_fast ship container cable_car subway aircraft wheelchair scooter drone" speed="13.89" length="13.06" shape="177.37,355.52 175.82,351.71 173.66,349.38 171.32,347.45 169.24,344.86" />
        <lane id=":25772784_2_1" index="1" disallow="bicycle tram rail_urban rail rail_electric rail_fast ship container cable_car subway aircraft wheelchair scooter drone" speed="13.89" length="13.06" shape="174.24,356.22 173.23,352.50 172.14,349.91 170.85,347.63 169.24,344.86" />
    </edge>
    <edge id=":25772784_4" function="internal">
        <lane id=":25772784_4_0" index="0" disallow="bicycle tram rail_urban rail rail_electric rail_fast ship container cable_car subway aircraft wheelchair scooter drone" speed="13.89" length="11.76" shape="163.21,347.32 165.19,350.09 166.39,352.11 167.19,354.32 168.00,357.61" />
        <lane id=":25772784_4_1" index="1" disallow="bicycle tram rail_urban rail rail_electric rail_fast ship container cable_car subway aircraft wheelchair scooter drone" speed="13.89" length="11.76" shape="166.26,346.08 168.30,348.99 169.51,351.13 170.30,353.45 171.12,356.92" />
    </edge>
    <edge id=":25773189_0" function="internal">
        <lane id=":25773189_0_0" index="0" disallow="tram rail_urban rail rail_electric rail_fast ship container cable_car subway aircraft wheelchair scooter drone" speed="6.41" length="9.04" shape="276.31,323.77 275.88,326.22 274.77,327.91 272.97,328.84 270.48,329.01" />
    </edge>
    <edge id=":25773189_1" function="internal">
        <lane id=":25773189_1_0" index="0" disallow="tram rail_urban rail rail_electric rail_fast ship container cable_car subway aircraft wheelchair scooter drone" speed="8.14" length="14.25" shape="276.31,323.77 276.73,327.69 278.25,330.58 280.88,332.44 284.61,333.27" />
    </edge>
    <edge id=":25773189_2" function="internal">
        <lane id=":25773189_2_0" index="0" disallow="tram rail_urban rail rail_electric rail_fast ship container cable_car subway aircraft wheelchair scooter drone" speed="6.68" length="9.25" shape="284.85,330.08 282.45,329.54 280.76,328.33 279.78,326.44 279.51,323.87" />
    </edge>
    <edge id=":25773189_3" function="internal">
        <lane id=":25773189_3_0" index="0" disallow="tram rail_urban rail rail_electric rail_fast ship container cable_car subway aircraft wheelchair scooter drone" speed="13.89" length="14.41" shape="284.85,330.08 270.48,329.01" />
    </edge>
    <edge id=":25773189_4" function="internal">
        <lane id=":25773189_4_0" index="0" disallow="tram rail_urban rail rail_electric rail_fast ship container cable_car subway aircraft wheelchair scooter drone" speed="13.89" length="14.42" shape="270.24,332.20 284.61,333.27" />
    </edge>
    <edge id=":25773189_5" function="internal">
        <lane id=":25773189_5_0" index="0" disallow="tram rail_urban rail rail_electric rail_fast ship container cable_car subway aircraft wheelchair scooter drone" speed="7.92" length="4.11" shape="270.24,332.20 274.19,331.94 274.33,331.87" />
    </edge>
    <edge id=":25773189_6" function="internal">
        <lane id=":25773189_6_0" index="0" disallow="tram rail_urban rail rail_electric rail_fast ship container cable_car subway aircraft wheelchair scooter drone" speed="7.92" length="10.25" shape="274.33,331.87 277.06,330.46 278.83,327.77 279.51,323.87" />
    </edge>
    <edge id=":262806526_0" function="internal">
        <lane id=":262806526_0_0" index="0" disallow="tram rail_urban rail rail_electric rail_fast ship container cable_car subway aircraft wheelchair scooter drone" speed="13.89" length="8.20" shape="40.35,451.53 42.64,450.80 44.09,449.94 45.55,449.09 47.84,448.39" />
        <lane id=":262806526_0_1" index="1" disallow="tram rail_urban rail rail_electric rail_fast ship container cable_car subway aircraft wheelchair scooter drone" speed="13.89" length="8.20" shape="39.70,448.39 42.09,448.15 43.76,448.37 45.44,448.60 47.84,448.39" />
        <lane id=":262806526_0_2" index="2" disallow="tram rail_urban rail rail_electric rail_fast ship container cable_car subway aircraft wheelchair scooter drone" speed="13.89" length="8.20" shape="39.05,445.26 41.45,445.02 43.13,445.23 44.82,445.46 47.23,445.25" />
    </edge>
    <edge id=":262806529_0" function="internal">
        <lane id=":262806529_0_0" index="0" disallow="bicycle tram rail_urban rail rail_electric rail_fast ship container cable_car subway aircraft wheelchair scooter drone" speed="8.28" length="8.03" shape="169.96,428.50 168.21,430.07 166.45,431.12 164.68,431.65 162.90,431.66" />
    </edge>
    <edge id=":262806529_1" function="internal">
        <lane id=":262806529_1_0" index="0" disallow="tram rail_urban rail rail_electric rail_fast ship container cable_car subway aircraft wheelchair scooter drone" speed="13.89" length="8.07" shape="170.90,432.94 162.90,431.66" />
        <lane id=":262806529_1_1" index="1" disallow="tram rail_urban rail rail_electric rail_fast ship container cable_car subway aircraft wheelchair scooter drone" speed="13.89" length="8.07" shape="170.41,436.10 162.44,434.82" />
        <lane id=":262806529_1_2" index="2" disallow="tram rail_urban rail rail_electric rail_fast ship container cable_car subway aircraft wheelchair scooter drone" speed="13.89" length="8.07" shape="169.92,439.26 161.99,437.99" />
    </edge>
    <edge id=":2980614243_0" function="internal">
        <lane id=":2980614243_0_0" index="0" disallow="tram rail_urban rail rail_electric rail_fast ship container cable_car subway aircraft wheelchair scooter drone" speed="13.89" length="7.62" shape="136.73,431.21 134.50,430.66 133.04,429.94 131.58,429.30 129.34,428.97" />
        <lane id=":2980614243_0_1" index="1" disallow="tram rail_urban rail rail_electric rail_fast ship container cable_car subway aircraft wheelchair scooter drone" speed="13.89" length="7.62" shape="136.29,434.38 134.16,433.84 132.77,433.13 131.38,432.50 129.23,432.17" />
    </edge>
    <edge id=":3390696350_0" function="internal">
        <lane id=":3390696350_0_0" index="0" disallow="tram rail_urban rail rail_electric rail_fast ship container cable_car subway aircraft wheelchair scooter drone" speed="13.89" length="7.98" shape="93.21,444.13 95.44,444.25 96.94,444.73 98.44,445.27 100.68,445.54" />
        <lane id=":3390696350_0_1" index="1" disallow="tram rail_urban rail rail_electric rail_fast ship container cable_car subway aircraft wheelchair scooter drone" speed="13.89" length="7.98" shape="93.01,440.94 95.31,441.05 96.86,441.53 98.41,442.07 100.72,442.35" />
        <lane id=":3390696350_0_2" index="2" disallow="tram rail_urban rail rail_electric rail_fast ship container cable_car subway aircraft wheelchair scooter drone" speed="13.89" length="7.98" shape="92.81,437.74 95.19,437.85 96.78,438.33 98.38,438.87 100.76,439.15" />
        <lane id=":3390696350_0_3" index="3" disallow="tram rail_urban rail rail_electric rail_fast ship container cable_car subway aircraft wheelchair scooter drone" speed="13.89" length="7.98" shape="92.81,437.74 95.21,437.35 96.80,436.73 98.40,436.17 100.79,435.95" />
    </edge>
    <edge id=":5891781820_0" function="internal">
        <lane id=":5891781820_0_0" index="0" disallow="tram rail_urban rail rail_electric rail_fast ship container cable_car subway aircraft wheelchair scooter drone" speed="13.89" length="8.21" shape="252.77,457.15 255.18,457.33 256.80,457.84 258.42,458.33 260.82,458.50" />
        <lane id=":5891781820_0_1" index="1" disallow="tram rail_urban rail rail_electric rail_fast ship container cable_car subway aircraft wheelchair scooter drone" speed="13.89" length="8.21" shape="252.68,453.96 255.08,454.14 256.70,454.64 258.31,455.14 260.72,455.31" />
        <lane id=":5891781820_0_2" index="2" disallow="tram rail_urban rail rail_electric rail_fast ship container cable_car subway aircraft wheelchair scooter drone" speed="13.89" length="8.21" shape="252.68,453.96 255.06,453.64 256.64,453.04 258.23,452.44 260.61,452.11" />
    </edge>
    <edge id=":8083240396_0" function="internal">
        <lane id=":8083240396_0_0" index="0" disallow="tram rail_urban rail rail_electric rail_fast ship container cable_car subway aircraft wheelchair scooter drone" speed="13.89" length="8.14" shape="53.01,447.38 55.35,447.19 56.99,447.45 58.62,447.74 60.98,447.63" />
        <lane id=":8083240396_0_1" index="1" disallow="tram rail_urban rail rail_electric rail_fast ship container cable_car subway aircraft wheelchair scooter drone" speed="13.89" length="8.14" shape="52.40,444.24 54.78,444.04 56.44,444.29 58.11,444.58 60.50,444.47" />
        <lane id=":8083240396_0_2" index="2" disallow="tram rail_urban rail rail_electric rail_fast ship container cable_car subway aircraft wheelchair scooter drone" speed="13.89" length="8.14" shape="52.40,444.24 54.72,443.54 56.20,442.71 57.69,441.91 60.02,441.30" />
    </edge>
    <edge id=":8083240401_0" function="internal">
        <lane id=":8083240401_0_0" index="0" disallow="bicycle tram rail_urban rail rail_electric rail_fast ship container cable_car subway aircraft wheelchair scooter drone" speed="20.84" length="3.36" shape="189.29,414.58 189.87,417.89" />
        <lane id=":8083240401_0_1" index="1" disallow="bicycle tram rail_urban rail rail_electric rail_fast ship container cable_car subway aircraft wheelchair scooter drone" speed="20.84" length="3.36" shape="186.14,415.12 186.71,418.43" />
    </edge>
    <edge id=":8083240401_2" function="internal">
        <lane id=":8083240401_2_0" index="0" disallow="bicycle tram rail_urban rail rail_electric rail_fast ship container cable_car subway aircraft wheelchair scooter drone" speed="20.84" length="3.35" shape="180.41,419.52 179.84,416.22" />
        <lane id=":8083240401_2_1" index="1" disallow="bicycle tram rail_urban rail rail_electric rail_fast ship container cable_car subway aircraft wheelchair scooter drone" speed="20.84" length="3.35" shape="183.56,418.98 182.99,415.67" />
    </edge>
    <edge id=":cluster_1345480308_25773538_0" function="internal">
        <lane id=":cluster_1345480308_25773538_0_0" index="0" disallow="tram rail_urban rail rail_electric rail_fast ship container cable_car subway aircraft wheelchair scooter drone" speed="13.89" length="21.40" shape="197.53,437.16 176.43,433.81" />
        <lane id=":cluster_1345480308_25773538_0_1" index="1" disallow="tram rail_urban rail rail_electric rail_fast ship container cable_car subway aircraft wheelchair scooter drone" speed="13.89" length="21.40" shape="197.03,440.33 175.90,436.97" />
        <lane id=":cluster_1345480308_25773538_0_2" index="2" disallow="tram rail_urban rail rail_electric rail_fast ship container cable_car subway aircraft wheelchair scooter drone" speed="13.89" length="21.40" shape="196.54,443.49 175.38,440.12" />
    </edge>
    <edge id=":cluster_1345480308_25773538_3" function="internal">
        <lane id=":cluster_1345480308_25773538_3_0" index="0" disallow="tram rail_urban rail rail_electric rail_fast ship container cable_car subway aircraft wheelchair scooter drone" speed="13.89" length="21.81" shape="173.21,453.16 179.74,453.81 184.39,453.51 188.90,453.14 194.96,453.60" />
        <lane id=":cluster_1345480308_25773538_3_1" index="1" disallow="tram rail_urban rail rail_electric rail_fast ship container cable_car subway aircraft wheelchair scooter drone" speed="13.89" length="21.81" shape="173.73,450.01 180.25,450.65 184.90,450.35 189.39,449.98 195.45,450.43" />
    </edge>
    <edge id=":cluster_1345480308_25773538_5" function="internal">
        <lane id=":cluster_1345480308_25773538_5_0" index="0" disallow="bicycle tram rail_urban rail rail_electric rail_fast ship container cable_car subway aircraft wheelchair scooter drone" speed="10.64" length="13.25" shape="174.26,446.85 183.05,446.90 186.88,444.60" />
        <lane id=":cluster_1345480308_25773538_5_1" index="1" disallow="bicycle tram rail_urban rail rail_electric rail_fast ship container cable_car subway aircraft wheelchair scooter drone" speed="9.54" length="6.61" shape="174.78,443.69 181.40,443.75" />
    </edge>
    <edge id=":cluster_1345480308_25773538_9" function="internal">
        <lane id=":cluster_1345480308_25773538_9_0" index="0" disallow="bicycle tram rail_urban rail rail_electric rail_fast ship container cable_car subway aircraft wheelchair scooter drone" speed="10.64" length="18.29" shape="186.88,444.60 188.63,443.55 191.29,437.09 191.32,427.82" />
        <lane id=":cluster_1345480308_25773538_9_1" index="0" disallow="bicycle tram rail_urban rail rail_electric rail_fast ship container cable_car subway aircraft wheelchair scooter drone" speed="9.54" length="18.48" shape="181.40,443.75 185.83,441.20 188.08,436.05 188.15,428.30" />
    </edge>
    <edge id=":cluster_1345480308_25773538_7" function="internal">
        <lane id=":cluster_1345480308_25773538_7_0" index="0" disallow="bicycle tram rail_urban rail rail_electric rail_fast ship container cable_car subway aircraft wheelchair scooter drone" speed="12.64" length="29.41" shape="181.82,429.27 183.60,439.29 186.38,446.69 190.17,451.46 194.96,453.60" />
        <lane id=":cluster_1345480308_25773538_7_1" index="1" disallow="bicycle tram rail_urban rail rail_electric rail_fast ship container cable_car subway aircraft wheelchair scooter drone" speed="11.77" length="25.41" shape="184.98,428.79 186.50,437.78 188.75,444.38 191.73,448.60 195.45,450.43" />
    </edge>

    <edge id="-1088700963" from="25773192" to="25773189" name="Gladstone Road" priority="11" type="highway.secondary" shape="358.09,334.57 352.79,335.53 347.18,336.00 340.48,335.78 277.68,331.16">
        <lane id="-1088700963_0" index="0" disallow="tram rail_urban rail rail_electric rail_fast ship container cable_car subway aircraft wheelchair scooter drone" speed="13.89" length="73.22" shape="357.80,333.00 352.58,333.94 347.14,334.40 340.56,334.18 284.85,330.08">
            <param key="origId" value="1088700963" />
        </lane>
    </edge>
    <edge id="-119880447#2" from="cluster_1345480308_25773538" to="1345480299" name="The Strand" priority="13" type="highway.trunk" shape="187.88,438.96 186.86,431.14 186.04,423.87 185.10,418.47">
        <lane id="-119880447#2_0" index="0" disallow="bicycle tram rail_urban rail rail_electric rail_fast ship container cable_car subway aircraft wheelchair scooter drone" speed="13.89" length="0.20" shape="191.32,427.82 191.29,427.62">
            <param key="origId" value="119880447" />
        </lane>
        <lane id="-119880447#2_1" index="1" disallow="bicycle tram rail_urban rail rail_electric rail_fast ship container cable_car subway aircraft wheelchair scooter drone" speed="13.89" length="0.20" shape="188.15,428.30 188.13,428.11">
            <param key="origId" value="119880447" />
        </lane>
        <param key="origFrom" value="1345480308" />
        <param key="ref" value="SH 16" />
    </edge>
    <edge id="-1286470869#1" from="25773189" to="25772782" name="Gladstone Road" priority="11" type="highway.secondary" shape="277.68,331.16 214.49,326.38 206.19,325.76">
        <lane id="-1286470869#1_0" index="0" disallow="tram rail_urban rail rail_electric rail_fast ship container cable_car subway aircraft wheelchair scooter drone" speed="13.89" length="59.69" shape="270.48,329.01 214.61,324.78 210.96,324.51">
            <param key="origId" value="1286470869" />
        </lane>
    </edge>
    <edge id="-13718894" from="1345480297" to="25772784" name="The Strand" priority="13" type="highway.trunk" shape="182.23,401.89 173.15,358.66 172.38,355.22">
        <lane id="-13718894_0" index="0" disallow="bicycle tram rail_urban rail rail_electric rail_fast ship container cable_car subway aircraft wheelchair scooter drone" speed="13.89" length="51.55" shape="187.99,405.98 177.85,357.67 177.37,355.52">
            <param key="origId" value="13718894 867177333" />
        </lane>
        <lane id="-13718894_1" index="1" disallow="bicycle tram rail_urban rail rail_electric rail_fast ship container cable_car subway aircraft wheelchair scooter drone" speed="13.89" length="51.55" shape="184.86,406.64 174.72,358.33 174.24,356.22">
            <param key="origId" value="13718894 867177333" />
        </lane>
        <param key="ref" value="SH 16" />
    </edge>
    <edge id="-606859931" from="25772784" to="25772779" name="The Strand" priority="13" type="highway.trunk" shape="172.38,355.22 170.31,350.11 167.60,345.20 160.83,335.85 145.43,316.15">
        <lane id="-606859931_0" index="0" disallow="bicycle tram rail_urban rail rail_electric rail_fast ship container cable_car subway aircraft wheelchair scooter drone" speed="13.89" length="22.72" shape="169.24,344.86 168.95,344.34 162.11,334.89 155.67,326.65">
            <param key="origId" value="606859931" />
        </lane>
        <param key="ref" value="SH 16" />
    </edge>
    <edge id="-624523286" from="25772779" to="5897540819" name="The Strand" priority="13" type="highway.trunk">
        <lane id="-624523286_0" index="0" disallow="bicycle tram rail_urban rail rail_electric rail_fast ship container cable_car subway aircraft wheelchair scooter drone" speed="13.89" length="44.33" shape="143.70,311.19 117.06,275.77">
            <param key="origId" value="624523286" />
        </lane>
        <param key="ref" value="SH 16" />
    </edge>
    <edge id="-624524242" from="8083240401" to="1345480297" name="The Strand" priority="13" type="highway.trunk">
        <lane id="-624524242_0" index="0" disallow="bicycle tram rail_urban rail rail_electric rail_fast ship container cable_car subway aircraft wheelchair scooter drone" speed="27.78" length="0.20" shape="189.87,417.89 189.83,417.69">
            <param key="origId" value="624524242" />
        </lane>
        <lane id="-624524242_1" index="1" disallow="bicycle tram rail_urban rail rail_electric rail_fast ship container cable_car subway aircraft wheelchair scooter drone" speed="27.78" length="0.20" shape="186.71,418.43 186.68,418.24">
            <param key="origId" value="624524242" />
        </lane>